


 29 31  0  0  0  0  0  0  0  0999 V2000
   -0.1818   -1.6651    1.5080 C   0  0  0  0  0  0  0  0  0  0  0  0
   -0.2934   -2.8640    1.6044 O   0  0  0  0  0  0  0  0  0  0  0  0
   -0.1129   -1.0621    0.2061 N   0  0  0  0  0  0  0  0  0  0  0  0
    0.0146   -0.0900    0.1158 H   0  0  0  0  0  0  0  0  0  0  0  0
   -0.3204    0.5189    2.8526 C   0  0  0  0  0  0  0  0  0  0  0  0
   -0.1243    1.2253    4.0541 C   0  0  0  0  0  0  0  0  0  0  0  0
    0.3986    0.5372    5.1643 C   0  0  0  0  0  0  0  0  0  0  0  0
    0.6842   -0.8339    5.0800 C   0  0  0  0  0  0  0  0  0  0  0  0
    1.2847   -1.7240    6.4711 Cl  0  0  0  0  0  0  0  0  0  0  0  0
    0.4756   -1.5205    3.8980 C   0  0  0  0  0  0  0  0  0  0  0  0
   -0.0309   -0.8491    2.7901 C   0  0  0  0  0  0  0  0  0  0  0  0
    0.6143    1.2142    6.4051 N   0  0  0  0  0  0  0  0  0  0  0  0
    0.5103    2.6595    6.4381 C   0  0  0  0  0  0  0  0  0  0  0  0
    0.8293    0.7081    7.2217 H   0  0  0  0  0  0  0  0  0  0  0  0
   -1.5949    2.3637    1.9249 C   0  0  0  0  0  0  0  0  0  0  0  0
   -0.8376    1.1557    1.6973 O   0  0  0  0  0  0  0  0  0  0  0  0
   -0.2331   -1.9004   -0.9802 C   0  0  0  0  0  0  0  0  0  0  0  0
   -1.1634   -1.3498   -1.9654 C   0  0  0  0  0  0  0  0  0  0  0  0
   -2.3177   -0.5392   -1.3035 C   0  0  0  0  0  0  0  0  0  0  0  0
    1.1364   -1.9760   -1.6268 C   0  0  0  0  0  0  0  0  0  0  0  0
    0.8699   -1.1768   -3.0173 C   0  0  0  0  0  0  0  0  0  0  0  0
   -0.4274   -0.5086   -2.8034 N   0  0  0  0  0  0  0  0  0  0  0  0
   -1.1541   -0.2808   -4.0138 C   0  0  0  0  0  0  0  0  0  0  0  0
   -0.2867    0.3547   -5.1469 C   0  0  0  0  0  0  0  0  0  0  0  0
   -0.0715   -0.3516   -6.3337 C   0  0  0  0  0  0  0  0  0  0  0  0
    0.7099    0.2034   -7.3519 C   0  0  0  0  0  0  0  0  0  0  0  0
    1.2701    1.4684   -7.1824 C   0  0  0  0  0  0  0  0  0  0  0  0
    1.0574    2.1764   -6.0066 C   0  0  0  0  0  0  0  0  0  0  0  0
    0.2772    1.6215   -4.9823 C   0  0  0  0  0  0  0  0  0  0  0  0
 26 27  2  0  0  0
 26 25  1  0  0  0
 27 28  1  0  0  0
 28 29  2  0  0  0
 25 24  2  0  0  0
 29 24  1  0  0  0
 24 23  1  0  0  0
 23 22  1  0  0  0
 21 22  1  0  0  0
 21 20  1  0  0  0
 22 18  1  0  0  0
 18 19  1  0  0  0
 18 17  1  0  0  0
 20 17  1  0  0  0
 17  3  1  0  0  0
  3  1  1  0  0  0
  1  2  2  0  0  0
  1 11  1  0  0  0
 16 15  1  0  0  0
 16  5  1  0  0  0
 11  5  2  0  0  0
 11 10  1  0  0  0
  5  6  1  0  0  0
 10  8  2  0  0  0
  6  7  2  0  0  0
  8  7  1  0  0  0
  8  9  1  0  0  0
  7 12  1  0  0  0
 12 13  1  0  0  0
 12 14  1  0  0  0
  3  4  1  0  0  0
M  END
> <minimizedAffinity>
-10.30761

$$$$



 29 31  0  0  0  0  0  0  0  0999 V2000
   -0.1550   -1.6177    1.4864 C   0  0  0  0  0  0  0  0  0  0  0  0
   -0.2439   -2.8195    1.5695 O   0  0  0  0  0  0  0  0  0  0  0  0
   -0.1077   -0.9984    0.1912 N   0  0  0  0  0  0  0  0  0  0  0  0
    0.0013   -0.0232    0.1114 H   0  0  0  0  0  0  0  0  0  0  0  0
   -0.2946    0.5540    2.8506 C   0  0  0  0  0  0  0  0  0  0  0  0
   -0.1027    1.2486    4.0596 C   0  0  0  0  0  0  0  0  0  0  0  0
    0.4125    0.5488    5.1661 C   0  0  0  0  0  0  0  0  0  0  0  0
    0.6947   -0.8223    5.0705 C   0  0  0  0  0  0  0  0  0  0  0  0
    1.2855   -1.7270    6.4563 Cl  0  0  0  0  0  0  0  0  0  0  0  0
    0.4903   -1.4972    3.8811 C   0  0  0  0  0  0  0  0  0  0  0  0
   -0.0085   -0.8142    2.7768 C   0  0  0  0  0  0  0  0  0  0  0  0
    0.6236    1.2136    6.4142 N   0  0  0  0  0  0  0  0  0  0  0  0
    0.4762    2.6544    6.4705 C   0  0  0  0  0  0  0  0  0  0  0  0
    0.8645    0.7023    7.2203 H   0  0  0  0  0  0  0  0  0  0  0  0
   -1.6185    2.3709    1.9373 C   0  0  0  0  0  0  0  0  0  0  0  0
   -0.8039    1.2031    1.6986 O   0  0  0  0  0  0  0  0  0  0  0  0
   -0.2224   -1.8249   -1.0039 C   0  0  0  0  0  0  0  0  0  0  0  0
   -1.2454   -1.3371   -1.9283 C   0  0  0  0  0  0  0  0  0  0  0  0
   -2.4249   -0.6348   -1.1914 C   0  0  0  0  0  0  0  0  0  0  0  0
    1.1123   -1.7773   -1.7219 C   0  0  0  0  0  0  0  0  0  0  0  0
    0.7081   -0.9808   -3.0803 C   0  0  0  0  0  0  0  0  0  0  0  0
   -0.6260   -0.4251   -2.7862 N   0  0  0  0  0  0  0  0  0  0  0  0
   -1.4322   -0.2386   -3.9525 C   0  0  0  0  0  0  0  0  0  0  0  0
   -1.3080   -1.4048   -4.9844 C   0  0  0  0  0  0  0  0  0  0  0  0
   -0.3724   -1.3181   -6.0191 C   0  0  0  0  0  0  0  0  0  0  0  0
   -0.2576   -2.3520   -6.9535 C   0  0  0  0  0  0  0  0  0  0  0  0
   -1.0765   -3.4749   -6.8468 C   0  0  0  0  0  0  0  0  0  0  0  0
   -2.0061   -3.5682   -5.8191 C   0  0  0  0  0  0  0  0  0  0  0  0
   -2.1261   -2.5319   -4.8824 C   0  0  0  0  0  0  0  0  0  0  0  0
 26 27  2  0  0  0
 26 25  1  0  0  0
 27 28  1  0  0  0
 28 29  2  0  0  0
 25 24  2  0  0  0
 29 24  1  0  0  0
 24 23  1  0  0  0
 23 22  1  0  0  0
 21 22  1  0  0  0
 21 20  1  0  0  0
 22 18  1  0  0  0
 18 19  1  0  0  0
 18 17  1  0  0  0
 20 17  1  0  0  0
 17  3  1  0  0  0
  3  1  1  0  0  0
  1  2  2  0  0  0
  1 11  1  0  0  0
 16 15  1  0  0  0
 16  5  1  0  0  0
 11  5  2  0  0  0
 11 10  1  0  0  0
  5  6  1  0  0  0
 10  8  2  0  0  0
  6  7  2  0  0  0
  8  7  1  0  0  0
  8  9  1  0  0  0
  7 12  1  0  0  0
 12 13  1  0  0  0
 12 14  1  0  0  0
  3  4  1  0  0  0
M  END
> <minimizedAffinity>
-9.05992

$$$$



 29 31  0  0  0  0  0  0  0  0999 V2000
    0.0389   -1.6960    1.0673 C   0  0  0  0  0  0  0  0  0  0  0  0
    0.4103   -2.8209    1.3035 O   0  0  0  0  0  0  0  0  0  0  0  0
   -0.2259   -1.3073   -0.2900 N   0  0  0  0  0  0  0  0  0  0  0  0
   -0.4939   -0.3832   -0.4980 H   0  0  0  0  0  0  0  0  0  0  0  0
    0.1320   -1.0895    3.5613 C   0  0  0  0  0  0  0  0  0  0  0  0
    0.0006   -0.1383    4.5903 C   0  0  0  0  0  0  0  0  0  0  0  0
   -0.3489    1.1813    4.2496 C   0  0  0  0  0  0  0  0  0  0  0  0
   -0.5275    1.5442    2.9060 C   0  0  0  0  0  0  0  0  0  0  0  0
   -0.9089    3.1992    2.4550 Cl  0  0  0  0  0  0  0  0  0  0  0  0
   -0.3834    0.6040    1.9024 C   0  0  0  0  0  0  0  0  0  0  0  0
   -0.0486   -0.7065    2.2273 C   0  0  0  0  0  0  0  0  0  0  0  0
   -0.4933    2.1809    5.2616 N   0  0  0  0  0  0  0  0  0  0  0  0
    0.6251    2.4456    6.1447 C   0  0  0  0  0  0  0  0  0  0  0  0
   -1.3365    2.6800    5.3569 H   0  0  0  0  0  0  0  0  0  0  0  0
   -0.2346   -3.0583    4.9316 C   0  0  0  0  0  0  0  0  0  0  0  0
    0.4754   -2.4358    3.8395 O   0  0  0  0  0  0  0  0  0  0  0  0
   -0.0947   -2.2919   -1.3568 C   0  0  0  0  0  0  0  0  0  0  0  0
   -0.9737   -2.0111   -2.4916 C   0  0  0  0  0  0  0  0  0  0  0  0
   -2.2957   -1.3092   -2.0590 C   0  0  0  0  0  0  0  0  0  0  0  0
    1.3367   -2.2383   -1.8543 C   0  0  0  0  0  0  0  0  0  0  0  0
    1.1229   -1.6630   -3.3597 C   0  0  0  0  0  0  0  0  0  0  0  0
   -0.2694   -1.1767   -3.3630 N   0  0  0  0  0  0  0  0  0  0  0  0
   -0.8783   -1.2093   -4.6566 C   0  0  0  0  0  0  0  0  0  0  0  0
   -0.0769   -0.4174   -5.7385 C   0  0  0  0  0  0  0  0  0  0  0  0
    0.3397   -1.0654   -6.9049 C   0  0  0  0  0  0  0  0  0  0  0  0
    1.0647   -0.3692   -7.8769 C   0  0  0  0  0  0  0  0  0  0  0  0
    1.3665    0.9776   -7.6822 C   0  0  0  0  0  0  0  0  0  0  0  0
    0.9528    1.6278   -6.5267 C   0  0  0  0  0  0  0  0  0  0  0  0
    0.2286    0.9319   -5.5486 C   0  0  0  0  0  0  0  0  0  0  0  0
 26 27  2  0  0  0
 26 25  1  0  0  0
 27 28  1  0  0  0
 28 29  2  0  0  0
 25 24  2  0  0  0
 29 24  1  0  0  0
 24 23  1  0  0  0
 23 22  1  0  0  0
 21 22  1  0  0  0
 21 20  1  0  0  0
 22 18  1  0  0  0
 18 19  1  0  0  0
 18 17  1  0  0  0
 20 17  1  0  0  0
 17  3  1  0  0  0
  3  1  1  0  0  0
  1  2  2  0  0  0
  1 11  1  0  0  0
 16 15  1  0  0  0
 16  5  1  0  0  0
 11  5  2  0  0  0
 11 10  1  0  0  0
  5  6  1  0  0  0
 10  8  2  0  0  0
  6  7  2  0  0  0
  8  7  1  0  0  0
  8  9  1  0  0  0
  7 12  1  0  0  0
 12 13  1  0  0  0
 12 14  1  0  0  0
  3  4  1  0  0  0
M  END
> <minimizedAffinity>
-8.90870

$$$$



 29 31  0  0  0  0  0  0  0  0999 V2000
    0.5667   -2.6696    0.1253 C   0  0  0  0  0  0  0  0  0  0  0  0
    1.4814   -3.3644   -0.2488 O   0  0  0  0  0  0  0  0  0  0  0  0
   -0.2433   -1.9831   -0.8420 N   0  0  0  0  0  0  0  0  0  0  0  0
   -0.9683   -1.3857   -0.5474 H   0  0  0  0  0  0  0  0  0  0  0  0
    0.2423   -3.5640    2.5110 C   0  0  0  0  0  0  0  0  0  0  0  0
    0.0225   -3.3297    3.8814 C   0  0  0  0  0  0  0  0  0  0  0  0
   -0.1023   -2.0013    4.3279 C   0  0  0  0  0  0  0  0  0  0  0  0
    0.0257   -0.9340    3.4260 C   0  0  0  0  0  0  0  0  0  0  0  0
   -0.0708    0.7334    3.9723 Cl  0  0  0  0  0  0  0  0  0  0  0  0
    0.2541   -1.1759    2.0839 C   0  0  0  0  0  0  0  0  0  0  0  0
    0.3687   -2.4851    1.6283 C   0  0  0  0  0  0  0  0  0  0  0  0
   -0.3259   -1.7159    5.7109 N   0  0  0  0  0  0  0  0  0  0  0  0
    0.7700   -1.8862    6.6441 C   0  0  0  0  0  0  0  0  0  0  0  0
   -1.2077   -1.4094    6.0235 H   0  0  0  0  0  0  0  0  0  0  0  0
    0.2040   -5.9500    2.9508 C   0  0  0  0  0  0  0  0  0  0  0  0
    0.3703   -4.8784    1.9976 O   0  0  0  0  0  0  0  0  0  0  0  0
    0.0163   -2.1776   -2.2630 C   0  0  0  0  0  0  0  0  0  0  0  0
   -0.9627   -1.4984   -3.1112 C   0  0  0  0  0  0  0  0  0  0  0  0
   -2.3694   -1.4174   -2.4462 C   0  0  0  0  0  0  0  0  0  0  0  0
    1.3799   -1.5863   -2.5634 C   0  0  0  0  0  0  0  0  0  0  0  0
    0.9745   -0.3362   -3.5204 C   0  0  0  0  0  0  0  0  0  0  0  0
   -0.4838   -0.2065   -3.3417 N   0  0  0  0  0  0  0  0  0  0  0  0
   -1.1463    0.3561   -4.4773 C   0  0  0  0  0  0  0  0  0  0  0  0
   -0.2048    0.5561   -5.7076 C   0  0  0  0  0  0  0  0  0  0  0  0
    0.4979    1.7554   -5.8548 C   0  0  0  0  0  0  0  0  0  0  0  0
    1.3373    1.9493   -6.9562 C   0  0  0  0  0  0  0  0  0  0  0  0
    1.4767    0.9387   -7.9061 C   0  0  0  0  0  0  0  0  0  0  0  0
    0.7834   -0.2563   -7.7637 C   0  0  0  0  0  0  0  0  0  0  0  0
   -0.0617   -0.4527   -6.6624 C   0  0  0  0  0  0  0  0  0  0  0  0
 26 27  2  0  0  0
 26 25  1  0  0  0
 27 28  1  0  0  0
 28 29  2  0  0  0
 25 24  2  0  0  0
 29 24  1  0  0  0
 24 23  1  0  0  0
 23 22  1  0  0  0
 21 22  1  0  0  0
 21 20  1  0  0  0
 22 18  1  0  0  0
 18 19  1  0  0  0
 18 17  1  0  0  0
 20 17  1  0  0  0
 17  3  1  0  0  0
  3  1  1  0  0  0
  1  2  2  0  0  0
  1 11  1  0  0  0
 16 15  1  0  0  0
 16  5  1  0  0  0
 11  5  2  0  0  0
 11 10  1  0  0  0
  5  6  1  0  0  0
 10  8  2  0  0  0
  6  7  2  0  0  0
  8  7  1  0  0  0
  8  9  1  0  0  0
  7 12  1  0  0  0
 12 13  1  0  0  0
 12 14  1  0  0  0
  3  4  1  0  0  0
M  END
> <minimizedAffinity>
-8.70849

$$$$



 29 31  0  0  0  0  0  0  0  0999 V2000
    0.2510   -1.4795    0.3354 C   0  0  0  0  0  0  0  0  0  0  0  0
    1.2201   -1.0959   -0.2752 O   0  0  0  0  0  0  0  0  0  0  0  0
   -0.8612   -2.0403   -0.3799 N   0  0  0  0  0  0  0  0  0  0  0  0
   -1.6707   -2.3226    0.1040 H   0  0  0  0  0  0  0  0  0  0  0  0
    0.2051   -2.3297    2.7586 C   0  0  0  0  0  0  0  0  0  0  0  0
    0.1375   -2.0706    4.1404 C   0  0  0  0  0  0  0  0  0  0  0  0
    0.0494   -0.7348    4.5735 C   0  0  0  0  0  0  0  0  0  0  0  0
    0.0642    0.3157    3.6434 C   0  0  0  0  0  0  0  0  0  0  0  0
    0.0118    1.9926    4.1662 Cl  0  0  0  0  0  0  0  0  0  0  0  0
    0.1436    0.0496    2.2888 C   0  0  0  0  0  0  0  0  0  0  0  0
    0.2204   -1.2673    1.8475 C   0  0  0  0  0  0  0  0  0  0  0  0
   -0.0211   -0.4243    5.9673 N   0  0  0  0  0  0  0  0  0  0  0  0
    0.3347   -1.4489    6.9288 C   0  0  0  0  0  0  0  0  0  0  0  0
   -0.3060    0.4686    6.2684 H   0  0  0  0  0  0  0  0  0  0  0  0
    0.3515   -4.7018    3.2486 C   0  0  0  0  0  0  0  0  0  0  0  0
    0.2888   -3.6528    2.2585 O   0  0  0  0  0  0  0  0  0  0  0  0
   -0.7819   -2.1883   -1.8279 C   0  0  0  0  0  0  0  0  0  0  0  0
   -1.3439   -3.4553   -2.2947 C   0  0  0  0  0  0  0  0  0  0  0  0
   -1.1721   -4.6007   -1.2526 C   0  0  0  0  0  0  0  0  0  0  0  0
   -1.5917   -1.0656   -2.4467 C   0  0  0  0  0  0  0  0  0  0  0  0
   -2.8111   -1.8981   -3.1270 C   0  0  0  0  0  0  0  0  0  0  0  0
   -2.7044   -3.2423   -2.5295 N   0  0  0  0  0  0  0  0  0  0  0  0
   -3.2148   -4.2793   -3.3716 C   0  0  0  0  0  0  0  0  0  0  0  0
   -2.6251   -4.2495   -4.8177 C   0  0  0  0  0  0  0  0  0  0  0  0
   -2.9331   -3.1854   -5.6700 C   0  0  0  0  0  0  0  0  0  0  0  0
   -2.4178   -3.1518   -6.9695 C   0  0  0  0  0  0  0  0  0  0  0  0
   -1.5892   -4.1816   -7.4119 C   0  0  0  0  0  0  0  0  0  0  0  0
   -1.2771   -5.2402   -6.5687 C   0  0  0  0  0  0  0  0  0  0  0  0
   -1.7947   -5.2787   -5.2663 C   0  0  0  0  0  0  0  0  0  0  0  0
 26 27  2  0  0  0
 26 25  1  0  0  0
 27 28  1  0  0  0
 28 29  2  0  0  0
 25 24  2  0  0  0
 29 24  1  0  0  0
 24 23  1  0  0  0
 23 22  1  0  0  0
 21 22  1  0  0  0
 21 20  1  0  0  0
 22 18  1  0  0  0
 18 19  1  0  0  0
 18 17  1  0  0  0
 20 17  1  0  0  0
 17  3  1  0  0  0
  3  1  1  0  0  0
  1  2  2  0  0  0
  1 11  1  0  0  0
 16 15  1  0  0  0
 16  5  1  0  0  0
 11  5  2  0  0  0
 11 10  1  0  0  0
  5  6  1  0  0  0
 10  8  2  0  0  0
  6  7  2  0  0  0
  8  7  1  0  0  0
  8  9  1  0  0  0
  7 12  1  0  0  0
 12 13  1  0  0  0
 12 14  1  0  0  0
  3  4  1  0  0  0
M  END
> <minimizedAffinity>
-7.89525

$$$$



 29 31  0  0  0  0  0  0  0  0999 V2000
   -1.2616   -1.3365   -2.1909 C   0  0  0  0  0  0  0  0  0  0  0  0
   -2.4474   -1.1744   -2.0270 O   0  0  0  0  0  0  0  0  0  0  0  0
   -0.3920   -1.4100   -1.0500 N   0  0  0  0  0  0  0  0  0  0  0  0
    0.5802   -1.5054   -1.1727 H   0  0  0  0  0  0  0  0  0  0  0  0
    0.5037   -0.8117   -3.9811 C   0  0  0  0  0  0  0  0  0  0  0  0
    0.9232   -0.8387   -5.3243 C   0  0  0  0  0  0  0  0  0  0  0  0
    0.0658   -1.3999   -6.2884 C   0  0  0  0  0  0  0  0  0  0  0  0
   -1.1668   -1.9516   -5.9074 C   0  0  0  0  0  0  0  0  0  0  0  0
   -2.2273   -2.7075   -7.0873 Cl  0  0  0  0  0  0  0  0  0  0  0  0
   -1.5629   -1.9307   -4.5829 C   0  0  0  0  0  0  0  0  0  0  0  0
   -0.7289   -1.3692   -3.6217 C   0  0  0  0  0  0  0  0  0  0  0  0
    0.4504   -1.4490   -7.6647 N   0  0  0  0  0  0  0  0  0  0  0  0
    1.0754   -0.2826   -8.2560 C   0  0  0  0  0  0  0  0  0  0  0  0
    0.2936   -2.2598   -8.2005 H   0  0  0  0  0  0  0  0  0  0  0  0
    2.2337    0.7807   -3.3812 C   0  0  0  0  0  0  0  0  0  0  0  0
    1.3181   -0.2548   -2.9640 O   0  0  0  0  0  0  0  0  0  0  0  0
   -0.9600   -1.3420    0.2907 C   0  0  0  0  0  0  0  0  0  0  0  0
   -0.7573   -2.5756    1.0498 C   0  0  0  0  0  0  0  0  0  0  0  0
   -0.7306   -3.8373    0.1361 C   0  0  0  0  0  0  0  0  0  0  0  0
   -0.2544   -0.2215    1.0294 C   0  0  0  0  0  0  0  0  0  0  0  0
    0.5516   -1.0566    2.1677 C   0  0  0  0  0  0  0  0  0  0  0  0
    0.4669   -2.4568    1.7121 N   0  0  0  0  0  0  0  0  0  0  0  0
    0.5295   -3.4054    2.7803 C   0  0  0  0  0  0  0  0  0  0  0  0
    0.3603   -2.7600    4.1927 C   0  0  0  0  0  0  0  0  0  0  0  0
    1.4821   -2.5599    5.0021 C   0  0  0  0  0  0  0  0  0  0  0  0
    1.3423   -1.9905    6.2715 C   0  0  0  0  0  0  0  0  0  0  0  0
    0.0790   -1.6164    6.7265 C   0  0  0  0  0  0  0  0  0  0  0  0
   -1.0391   -1.8100    5.9257 C   0  0  0  0  0  0  0  0  0  0  0  0
   -0.9029   -2.3836    4.6537 C   0  0  0  0  0  0  0  0  0  0  0  0
 26 27  2  0  0  0
 26 25  1  0  0  0
 27 28  1  0  0  0
 28 29  2  0  0  0
 25 24  2  0  0  0
 29 24  1  0  0  0
 24 23  1  0  0  0
 23 22  1  0  0  0
 21 22  1  0  0  0
 21 20  1  0  0  0
 22 18  1  0  0  0
 18 19  1  0  0  0
 18 17  1  0  0  0
 20 17  1  0  0  0
 17  3  1  0  0  0
  3  1  1  0  0  0
  1  2  2  0  0  0
  1 11  1  0  0  0
 16 15  1  0  0  0
 16  5  1  0  0  0
 11  5  2  0  0  0
 11 10  1  0  0  0
  5  6  1  0  0  0
 10  8  2  0  0  0
  6  7  2  0  0  0
  8  7  1  0  0  0
  8  9  1  0  0  0
  7 12  1  0  0  0
 12 13  1  0  0  0
 12 14  1  0  0  0
  3  4  1  0  0  0
M  END
> <minimizedAffinity>
-7.82721

$$$$



 29 31  0  0  0  0  0  0  0  0999 V2000
   -1.1754   -1.0575   -2.1452 C   0  0  0  0  0  0  0  0  0  0  0  0
   -2.3613   -0.8522   -2.0411 O   0  0  0  0  0  0  0  0  0  0  0  0
   -0.3941   -1.3123   -0.9671 N   0  0  0  0  0  0  0  0  0  0  0  0
    0.5790   -1.4448   -1.0363 H   0  0  0  0  0  0  0  0  0  0  0  0
   -1.1279   -1.5092   -4.6732 C   0  0  0  0  0  0  0  0  0  0  0  0
   -0.4774   -1.4095   -5.9173 C   0  0  0  0  0  0  0  0  0  0  0  0
    0.7762   -0.7734   -5.9749 C   0  0  0  0  0  0  0  0  0  0  0  0
    1.3457   -0.2204   -4.8179 C   0  0  0  0  0  0  0  0  0  0  0  0
    2.8838    0.6274   -4.8785 Cl  0  0  0  0  0  0  0  0  0  0  0  0
    0.6916   -0.3133   -3.6032 C   0  0  0  0  0  0  0  0  0  0  0  0
   -0.5434   -0.9492   -3.5313 C   0  0  0  0  0  0  0  0  0  0  0  0
    1.4733   -0.6489   -7.2170 N   0  0  0  0  0  0  0  0  0  0  0  0
    1.3283    0.5759   -7.9783 C   0  0  0  0  0  0  0  0  0  0  0  0
    2.0412   -1.3814   -7.5489 H   0  0  0  0  0  0  0  0  0  0  0  0
   -2.8580   -2.8567   -5.7119 C   0  0  0  0  0  0  0  0  0  0  0  0
   -2.3887   -2.1434   -4.5476 O   0  0  0  0  0  0  0  0  0  0  0  0
   -1.0531   -1.3730    0.3316 C   0  0  0  0  0  0  0  0  0  0  0  0
   -0.7409   -2.6004    1.0632 C   0  0  0  0  0  0  0  0  0  0  0  0
   -0.4888   -3.8096    0.1136 C   0  0  0  0  0  0  0  0  0  0  0  0
   -0.5508   -0.2023    1.1539 C   0  0  0  0  0  0  0  0  0  0  0  0
    0.2812   -0.9728    2.3189 C   0  0  0  0  0  0  0  0  0  0  0  0
    0.4109   -2.3523    1.8137 N   0  0  0  0  0  0  0  0  0  0  0  0
    0.5269   -3.3280    2.8526 C   0  0  0  0  0  0  0  0  0  0  0  0
    0.3543   -2.7306    4.2856 C   0  0  0  0  0  0  0  0  0  0  0  0
   -0.9245   -2.4250    4.7597 C   0  0  0  0  0  0  0  0  0  0  0  0
   -1.0910   -1.8822    6.0375 C   0  0  0  0  0  0  0  0  0  0  0  0
    0.0238   -1.6518    6.8418 C   0  0  0  0  0  0  0  0  0  0  0  0
    1.2970   -1.9561    6.3775 C   0  0  0  0  0  0  0  0  0  0  0  0
    1.4677   -2.4974    5.0955 C   0  0  0  0  0  0  0  0  0  0  0  0
 26 27  2  0  0  0
 26 25  1  0  0  0
 27 28  1  0  0  0
 28 29  2  0  0  0
 25 24  2  0  0  0
 29 24  1  0  0  0
 24 23  1  0  0  0
 23 22  1  0  0  0
 21 22  1  0  0  0
 21 20  1  0  0  0
 22 18  1  0  0  0
 18 19  1  0  0  0
 18 17  1  0  0  0
 20 17  1  0  0  0
 17  3  1  0  0  0
  3  1  1  0  0  0
  1  2  2  0  0  0
  1 11  1  0  0  0
 16 15  1  0  0  0
 16  5  1  0  0  0
 11  5  2  0  0  0
 11 10  1  0  0  0
  5  6  1  0  0  0
 10  8  2  0  0  0
  6  7  2  0  0  0
  8  7  1  0  0  0
  8  9  1  0  0  0
  7 12  1  0  0  0
 12 13  1  0  0  0
 12 14  1  0  0  0
  3  4  1  0  0  0
M  END
> <minimizedAffinity>
-7.77459

$$$$



 29 31  0  0  0  0  0  0  0  0999 V2000
   -1.9900   -3.2670   -1.8659 C   0  0  0  0  0  0  0  0  0  0  0  0
   -3.1879   -3.1249   -1.8015 O   0  0  0  0  0  0  0  0  0  0  0  0
   -1.3753   -3.5350   -3.1362 N   0  0  0  0  0  0  0  0  0  0  0  0
   -0.4047   -3.6887   -3.1950 H   0  0  0  0  0  0  0  0  0  0  0  0
   -0.6122   -4.3884   -0.0109 C   0  0  0  0  0  0  0  0  0  0  0  0
    0.0817   -4.3068    1.2110 C   0  0  0  0  0  0  0  0  0  0  0  0
    0.1466   -3.0649    1.8691 C   0  0  0  0  0  0  0  0  0  0  0  0
   -0.4406   -1.9264    1.2967 C   0  0  0  0  0  0  0  0  0  0  0  0
   -0.3227   -0.3550    2.0746 Cl  0  0  0  0  0  0  0  0  0  0  0  0
   -1.1090   -2.0159    0.0896 C   0  0  0  0  0  0  0  0  0  0  0  0
   -1.1894   -3.2402   -0.5657 C   0  0  0  0  0  0  0  0  0  0  0  0
    0.8408   -2.9350    3.1123 N   0  0  0  0  0  0  0  0  0  0  0  0
    0.1014   -3.1151    4.3459 C   0  0  0  0  0  0  0  0  0  0  0  0
    1.8029   -2.7272    3.1301 H   0  0  0  0  0  0  0  0  0  0  0  0
   -1.5306   -6.6326   -0.1014 C   0  0  0  0  0  0  0  0  0  0  0  0
   -0.7191   -5.6108   -0.7194 O   0  0  0  0  0  0  0  0  0  0  0  0
   -2.1998   -3.5778   -4.3374 C   0  0  0  0  0  0  0  0  0  0  0  0
   -2.1985   -2.3091   -5.0652 C   0  0  0  0  0  0  0  0  0  0  0  0
   -2.0322   -1.0824   -4.1192 C   0  0  0  0  0  0  0  0  0  0  0  0
   -1.6191   -4.6382   -5.2525 C   0  0  0  0  0  0  0  0  0  0  0  0
   -1.0897   -3.7269   -6.4904 C   0  0  0  0  0  0  0  0  0  0  0  0
   -1.1300   -2.3497   -5.9641 N   0  0  0  0  0  0  0  0  0  0  0  0
   -1.3182   -1.3601   -6.9792 C   0  0  0  0  0  0  0  0  0  0  0  0
   -0.2735   -0.2006   -6.9152 C   0  0  0  0  0  0  0  0  0  0  0  0
    0.7109   -0.0993   -7.9023 C   0  0  0  0  0  0  0  0  0  0  0  0
    1.6564    0.9296   -7.8512 C   0  0  0  0  0  0  0  0  0  0  0  0
    1.6111    1.8599   -6.8142 C   0  0  0  0  0  0  0  0  0  0  0  0
    0.6336    1.7662   -5.8320 C   0  0  0  0  0  0  0  0  0  0  0  0
   -0.3140    0.7340   -5.8784 C   0  0  0  0  0  0  0  0  0  0  0  0
 26 27  2  0  0  0
 26 25  1  0  0  0
 27 28  1  0  0  0
 28 29  2  0  0  0
 25 24  2  0  0  0
 29 24  1  0  0  0
 24 23  1  0  0  0
 23 22  1  0  0  0
 21 22  1  0  0  0
 21 20  1  0  0  0
 22 18  1  0  0  0
 18 19  1  0  0  0
 18 17  1  0  0  0
 20 17  1  0  0  0
 17  3  1  0  0  0
  3  1  1  0  0  0
  1  2  2  0  0  0
  1 11  1  0  0  0
 16 15  1  0  0  0
 16  5  1  0  0  0
 11  5  2  0  0  0
 11 10  1  0  0  0
  5  6  1  0  0  0
 10  8  2  0  0  0
  6  7  2  0  0  0
  8  7  1  0  0  0
  8  9  1  0  0  0
  7 12  1  0  0  0
 12 13  1  0  0  0
 12 14  1  0  0  0
  3  4  1  0  0  0
M  END
> <minimizedAffinity>
-7.74088

$$$$



 29 31  0  0  0  0  0  0  0  0999 V2000
    0.1266   -1.1187    0.8483 C   0  0  0  0  0  0  0  0  0  0  0  0
    1.0773   -0.8468    0.1545 O   0  0  0  0  0  0  0  0  0  0  0  0
   -0.9926   -1.8140    0.2762 N   0  0  0  0  0  0  0  0  0  0  0  0
   -1.7878   -2.0086    0.8229 H   0  0  0  0  0  0  0  0  0  0  0  0
   -0.3101    0.6523    2.6565 C   0  0  0  0  0  0  0  0  0  0  0  0
   -0.2512    1.0608    4.0021 C   0  0  0  0  0  0  0  0  0  0  0  0
    0.2837    0.1740    4.9544 C   0  0  0  0  0  0  0  0  0  0  0  0
    0.7161   -1.1043    4.5702 C   0  0  0  0  0  0  0  0  0  0  0  0
    1.3351   -2.2475    5.7526 Cl  0  0  0  0  0  0  0  0  0  0  0  0
    0.6418   -1.4996    3.2472 C   0  0  0  0  0  0  0  0  0  0  0  0
    0.1248   -0.6279    2.2945 C   0  0  0  0  0  0  0  0  0  0  0  0
    0.3630    0.5464    6.3326 N   0  0  0  0  0  0  0  0  0  0  0  0
    0.4126    1.9544    6.6727 C   0  0  0  0  0  0  0  0  0  0  0  0
    0.3836   -0.1408    7.0373 H   0  0  0  0  0  0  0  0  0  0  0  0
   -1.5676    2.6544    2.1104 C   0  0  0  0  0  0  0  0  0  0  0  0
   -0.8316    1.5012    1.6490 O   0  0  0  0  0  0  0  0  0  0  0  0
   -0.9417   -2.2292   -1.1201 C   0  0  0  0  0  0  0  0  0  0  0  0
   -0.9641   -3.6834   -1.2750 C   0  0  0  0  0  0  0  0  0  0  0  0
   -0.2821   -4.4179   -0.0821 C   0  0  0  0  0  0  0  0  0  0  0  0
   -2.1721   -1.6704   -1.8079 C   0  0  0  0  0  0  0  0  0  0  0  0
   -2.9828   -3.0359   -2.1559 C   0  0  0  0  0  0  0  0  0  0  0  0
   -2.3042   -4.0700   -1.3525 N   0  0  0  0  0  0  0  0  0  0  0  0
   -2.3945   -5.3792   -1.9206 C   0  0  0  0  0  0  0  0  0  0  0  0
   -2.6573   -5.3697   -3.4603 C   0  0  0  0  0  0  0  0  0  0  0  0
   -1.7093   -4.8104   -4.3218 C   0  0  0  0  0  0  0  0  0  0  0  0
   -1.9371   -4.7886   -5.7012 C   0  0  0  0  0  0  0  0  0  0  0  0
   -3.1120   -5.3330   -6.2170 C   0  0  0  0  0  0  0  0  0  0  0  0
   -4.0565   -5.8928   -5.3664 C   0  0  0  0  0  0  0  0  0  0  0  0
   -3.8329   -5.9133   -3.9825 C   0  0  0  0  0  0  0  0  0  0  0  0
 26 27  2  0  0  0
 26 25  1  0  0  0
 27 28  1  0  0  0
 28 29  2  0  0  0
 25 24  2  0  0  0
 29 24  1  0  0  0
 24 23  1  0  0  0
 23 22  1  0  0  0
 21 22  1  0  0  0
 21 20  1  0  0  0
 22 18  1  0  0  0
 18 19  1  0  0  0
 18 17  1  0  0  0
 20 17  1  0  0  0
 17  3  1  0  0  0
  3  1  1  0  0  0
  1  2  2  0  0  0
  1 11  1  0  0  0
 16 15  1  0  0  0
 16  5  1  0  0  0
 11  5  2  0  0  0
 11 10  1  0  0  0
  5  6  1  0  0  0
 10  8  2  0  0  0
  6  7  2  0  0  0
  8  7  1  0  0  0
  8  9  1  0  0  0
  7 12  1  0  0  0
 12 13  1  0  0  0
 12 14  1  0  0  0
  3  4  1  0  0  0
M  END
> <minimizedAffinity>
-7.55942

$$$$
